ID CAPS generated Problem FOR TACS
SOL 1
CEND

LINE=10000
DISP (PRINT,PUNCH) = ALL
STRE (PRINT,PUNCH) = ALL
STRA (PRINT,PUNCH) = ALL
SUBCASE 1
	LABEL = Default
	ANALYSIS = STATICS
	SPC = 3

BEGIN BULK
$---1---|---2---|---3---|---4---|---5---|---6---|---7---|---8---|---9---|---10--|
PARAM, POST, -1

SPCADD*               3               1               2 
SPC*                  1             226             123              0. 
SPC*                  1             241             123              0. 
SPC*                  1             242             123              0. 
SPC*                  1             243             123              0. 
SPC*                  1             244             123              0. 
SPC*                  1             245             123              0. 
SPC*                  1             246             123              0. 
SPC*                  1             247             123              0. 
SPC*                  1             248             123              0. 
SPC*                  1             369             123              0. 
SPC*                  1             370             123              0. 
SPC*                  1             371             123              0. 
SPC*                  1             372             123              0. 
SPC*                  1             373             123              0. 
SPC*                  1             374             123              0. 
SPC*                  1             375             123              0. 
SPC*                  1             376             123              0. 
SPC*                  1             377             123              0. 
SPC*                  1             770             123              0. 
SPC*                  1             778             123              0. 
$ ... 300 like lines cut
MAT1*                 1    70000000000.                            0.35 *0      
*0                2700.         2.31E-5                                 *1      
*1           200000000.              0.              0. 
PSHELL*               1               1             0.1               1 *0      
*0                   1.               1 0.8333333333333 
PSHELL*               9               1           1.E-2               1 *0      
*0                   1.               1 0.8333333333333 
PSHELL*               7               1           1.E-2               1 *0      
*0                   1.               1 0.8333333333333 
PSHELL*               5               1           1.E-2               1 *0      
*0                   1.               1 0.8333333333333 
PSHELL*               3               1           1.E-2               1 *0      
*0                   1.               1 0.8333333333333 
PSHELL*               8               1           1.E-2               1 *0      
*0                   1.               1 0.8333333333333 
PSHELL*               6               1           1.E-2               1 *0      
*0                   1.               1 0.8333333333333 
PSHELL*               2               1           1.E-2               1 *0      
*0                   1.               1 0.8333333333333 
PSHELL*               4               1           1.E-2               1 *0      
*0                   1.               1 0.8333333333333 
DESVAR*               1           thick             0.1           5.E-2 *0      
*0                 0.15             0.1 
DESVAR*               2            rib1           1.E-2           5.E-3 *0      
*0               1.5E-2           1.E-2 
DESVAR*               3            rib2           1.E-2           5.E-3 *0      
*0               1.5E-2           1.E-2 
DESVAR*               4            rib3           1.E-2           5.E-3 *0      
*0               1.5E-2           1.E-2 
DESVAR*               5            rib4           1.E-2           5.E-3 *0      
*0               1.5E-2           1.E-2 
DESVAR*               6           spar1           1.E-2           5.E-3 *0      
*0               1.5E-2           1.E-2 
DESVAR*               7           spar2           1.E-2           5.E-3 *0      
*0               1.5E-2           1.E-2 
DESVAR*               8           spar3           1.E-2           5.E-3 *0      
*0               1.5E-2           1.E-2 
DESVAR*               9           spar4           1.E-2           5.E-3 *0      
*0               1.5E-2           1.E-2 
DVPREL1*            100          PSHELL               1               T *0      
*0                                                   0.                 *1      
*1                    1              1. 
DVPREL1*            200          PSHELL               9               T *0      
*0                                                   0.                 *1      
*1                    2              1. 
DVPREL1*            300          PSHELL               7               T *0      
*0                                                   0.                 *1      
*1                    3              1. 
DVPREL1*            400          PSHELL               5               T *0      
*0                                                   0.                 *1      
*1                    4              1. 
DVPREL1*            500          PSHELL               3               T *0      
*0                                                   0.                 *1      
*1                    5              1. 
DVPREL1*            600          PSHELL               8               T *0      
*0                                                   0.                 *1      
*1                    6              1. 
DVPREL1*            700          PSHELL               6               T *0      
*0                                                   0.                 *1      
*1                    7              1. 
DVPREL1*            800          PSHELL               2               T *0      
*0                                                   0.                 *1      
*1                    8              1. 
DVPREL1*            900          PSHELL               4               T *0      
*0                                                   0.                 *1      
*1                    9              1. 

INCLUDE 'nastran_CAPS.bdf'

ENDDATA
