ID CAPS generated Problem FOR TACS
SOL 1
CEND

LINE=10000
DISP (PRINT,PUNCH) = ALL
STRE (PRINT,PUNCH) = ALL
STRA (PRINT,PUNCH) = ALL
SUBCASE 1
	LABEL = Default
	ANALYSIS = STATICS
	SPC = 3

BEGIN BULK
$---1---|---2---|---3---|---4---|---5---|---6---|---7---|---8---|---9---|---10--|
PARAM, POST, -1

SPCADD*               3               1               2 
SPC1*                 1             123             134 
SPC1*                 1             123             145 
SPC1*                 1             123             146 
SPC1*                 1             123             147 
SPC1*                 1             123             148 
SPC1*                 1             123             149 
SPC1*                 1             123             150 
SPC1*                 1             123             217 
SPC1*                 1             123             218 
SPC1*                 1             123             219 
SPC1*                 1             123             220 
SPC1*                 1             123             221 
SPC1*                 1             123             222 
SPC1*                 1             123             223 
SPC1*                 1             123             404 
SPC1*                 1             123             405 
SPC1*                 1             123             406 
SPC1*                 1             123             407 
SPC1*                 1             123             408 
SPC1*                 1             123             409 
$ ... 76 like lines cut
SPC*                  2             134               0              0. 
SPC*                  2             145               0              0. 
SPC*                  2             146               0              0. 
SPC*                  2             147               0              0. 
SPC*                  2             148               0              0. 
SPC*                  2             149               0              0. 
SPC*                  2             150               0              0. 
SPC*                  2             217               0              0. 
SPC*                  2             218               0              0. 
SPC*                  2             219               0              0. 
SPC*                  2             220               0              0. 
SPC*                  2             221               0              0. 
SPC*                  2             222               0              0. 
SPC*                  2             223               0              0. 
SPC*                  2             404               0              0. 
SPC*                  2             405               0              0. 
SPC*                  2             406               0              0. 
SPC*                  2             407               0              0. 
SPC*                  2             408               0              0. 
SPC*                  2             409               0              0. 
$ ... 76 like lines cut
MAT1*                 1    70000000000.                            0.35 *0      
*0                2700.         2.31E-5                                 *1      
*1           200000000.              0.              0. 
MAT4*               101            237.            903.           2700. 
PSHELL*               6               1           5.E-2               1 *0      
*0                  20.               1 0.8333333333333 
PSHELL*               2               1           5.E-2               1 *0      
*0                  20.               1 0.8333333333333 
PSHELL*               4               1           5.E-2               1 *0      
*0                  20.               1 0.8333333333333 
PSHELL*               7               1           5.E-2               1 *0      
*0                  20.               1 0.8333333333333 
PSHELL*               5               1           5.E-2               1 *0      
*0                  20.               1 0.8333333333333 
PSHELL*               3               1           5.E-2               1 *0      
*0                  20.               1 0.8333333333333 
PSHELL*               1               1           5.E-2               1 *0      
*0                  20.               1 0.8333333333333 
DESVAR*               1         stiffx1           5.E-2          2.5E-2 *0      
*0                  0.1           5.E-3 
DESVAR*               2         stiffx2           5.E-2          2.5E-2 *0      
*0                  0.1           5.E-3 
DESVAR*               3         stiffx3           5.E-2          2.5E-2 *0      
*0                  0.1           5.E-3 
DESVAR*               4         stiffy1           5.E-2          2.5E-2 *0      
*0                  0.1           5.E-3 
DESVAR*               5         stiffy2           5.E-2          2.5E-2 *0      
*0                  0.1           5.E-3 
DESVAR*               6         stiffy3           5.E-2          2.5E-2 *0      
*0                  0.1           5.E-3 
DESVAR*               7           thick           5.E-2          2.5E-2 *0      
*0                  0.1           5.E-3 
DVPREL1*            100          PSHELL               6               T *0      
*0                                                   0.                 *1      
*1                    1              1. 
DVPREL1*            200          PSHELL               2               T *0      
*0                                                   0.                 *1      
*1                    2              1. 
DVPREL1*            300          PSHELL               4               T *0      
*0                                                   0.                 *1      
*1                    3              1. 
DVPREL1*            400          PSHELL               7               T *0      
*0                                                   0.                 *1      
*1                    4              1. 
DVPREL1*            500          PSHELL               5               T *0      
*0                                                   0.                 *1      
*1                    5              1. 
DVPREL1*            600          PSHELL               3               T *0      
*0                                                   0.                 *1      
*1                    6              1. 
DVPREL1*            700          PSHELL               1               T *0      
*0                                                   0.                 *1      
*1                    7              1. 

INCLUDE 'stiffened_plate.bdf'

ENDDATA
