ID CAPS generated Problem FOR TACS
SOL 1
CEND

LINE=10000
DISP (PRINT,PUNCH) = ALL
STRE (PRINT,PUNCH) = ALL
STRA (PRINT,PUNCH) = ALL
SUBCASE 1
	LABEL = Default
	ANALYSIS = STATICS
	SPC = 2
	LOAD = 2

BEGIN BULK
$---1---|---2---|---3---|---4---|---5---|---6---|---7---|---8---|---9---|---10--|
PARAM, POST, -1

LOAD*                 2              1.              1.               1 
SPCADD*               2               1 
FORCE*                1              67               0            100. *0      
*0                   0.              0.              1. 
FORCE*                1              68               0            100. *0      
*0                   0.              0.              1. 
FORCE*                1              69               0            100. *0      
*0                   0.              0.              1. 
FORCE*                1              70               0            100. *0      
*0                   0.              0.              1. 
FORCE*                1              71               0            100. *0      
*0                   0.              0.              1. 
FORCE*                1              72               0            100. *0      
*0                   0.              0.              1. 
FORCE*                1              73               0            100. *0      
*0                   0.              0.              1. 
FORCE*                1              74               0            100. *0      
*0                   0.              0.              1. 
FORCE*                1              75               0            100. *0      
*0                   0.              0.              1. 
FORCE*                1              76               0            100. *0      
*0                   0.              0.              1. 
FORCE*                1              77               0            100. *0      
*0                   0.              0.              1. 
FORCE*                1              78               0            100. *0      
*0                   0.              0.              1. 
FORCE*                1              79               0            100. *0      
*0                   0.              0.              1. 
FORCE*                1              80               0            100. *0      
*0                   0.              0.              1. 
FORCE*                1              81               0            100. *0      
*0                   0.              0.              1. 
FORCE*                1              82               0            100. *0      
*0                   0.              0.              1. 
FORCE*                1              83               0            100. *0      
*0                   0.              0.              1. 
FORCE*                1              84               0            100. *0      
*0                   0.              0.              1. 
FORCE*                1              85               0            100. *0      
*0                   0.              0.              1. 
FORCE*                1              86               0            100. *0      
*0                   0.              0.              1. 
$ ... 10 like lines cut
SPC1*                 1             123               1 
SPC1*                 1             123               7 
SPC1*                 1             123               8 
SPC1*                 1             123               9 
SPC1*                 1             123              10 
SPC1*                 1             123              11 
SPC1*                 1             123              12 
SPC1*                 1             123              13 
SPC1*                 1             123              14 
SPC1*                 1             123              15 
SPC1*                 1             123              16 
SPC1*                 1             123              17 
SPC1*                 1             123              18 
SPC1*                 1             123              19 
SPC1*                 1             123              20 
SPC1*                 1             123              21 
SPC1*                 1             123              22 
SPC1*                 1             123              23 
SPC1*                 1             123              24 
SPC1*                 1             123              50 
$ ... 28 like lines cut
MAT1*                 1    70000000000.                            0.35 *0      
*0                2700.         2.31E-5                                 *1      
*1           200000000.              0.              0. 
PSHELL*               3               1           3.E-2               1 *0      
*0                  20.               1 0.8333333333333 
PSHELL*               2               1           3.E-2               1 *0      
*0                  20.               1 0.8333333333333 
PSHELL*               1               1           3.E-2               1 *0      
*0                  20.               1 0.8333333333333 
DESVAR*               1           face1           3.E-2          1.5E-2 *0      
*0                6.E-2           3.E-3 
DESVAR*               2           face2           3.E-2          1.5E-2 *0      
*0                6.E-2           3.E-3 
DESVAR*               3           face3           3.E-2          1.5E-2 *0      
*0                6.E-2           3.E-3 
DVPREL1*            100          PSHELL               3               T *0      
*0                                                   0.                 *1      
*1                    1              1. 
DVPREL1*            200          PSHELL               2               T *0      
*0                                                   0.                 *1      
*1                    2              1. 
DVPREL1*            300          PSHELL               1               T *0      
*0                                                   0.                 *1      
*1                    3              1. 

INCLUDE 'loaded_plate.bdf'

ENDDATA
