ID CAPS generated Problem FOR TACS
SOL 1
CEND

LINE=10000
DISP (PRINT,PUNCH) = ALL
STRE (PRINT,PUNCH) = ALL
STRA (PRINT,PUNCH) = ALL
SUBCASE 1
	LABEL = Default
	ANALYSIS = STATICS
	SPC = 2

BEGIN BULK
$---1---|---2---|---3---|---4---|---5---|---6---|---7---|---8---|---9---|---10--|
PARAM, POST, -1

SPCADD*               2               1 
SPC1*                 1             123            1879 
SPC1*                 1             123            1880 
SPC1*                 1             123            1881 
SPC1*                 1             123            1882 
SPC1*                 1             123            1883 
SPC1*                 1             123            1884 
SPC1*                 1             123            1885 
SPC1*                 1             123            1886 
SPC1*                 1             123            1887 
SPC1*                 1             123            1888 
SPC1*                 1             123            1889 
SPC1*                 1             123            1890 
SPC1*                 1             123            1891 
SPC1*                 1             123            1892 
SPC1*                 1             123            1893 
SPC1*                 1             123            1894 
SPC1*                 1             123            1895 
SPC1*                 1             123            5650 
SPC1*                 1             123            5651 
SPC1*                 1             123            5652 
$ ... 424 like lines cut
MAT1*                 1    70000000000.                            0.35 *0      
*0                2700.         2.31E-5                                 *1      
*1           200000000.              0.              0. 
PSHELL*               3               1           3.E-2               1 *0      
*0                  20.               1 0.8333333333333 
PSHELL*               6               1           5.E-2               1 *0      
*0                  20.               1 0.8333333333333 
PSHELL*               4               1           5.E-2               1 *0      
*0                  20.               1 0.8333333333333 
PSHELL*               2               1           5.E-2               1 *0      
*0                  20.               1 0.8333333333333 
PSHELL*               5               1           5.E-2               1 *0      
*0                  20.               1 0.8333333333333 
PSHELL*               1               1           5.E-2               1 *0      
*0                  20.               1 0.8333333333333 

INCLUDE 'simple_naca_wing.bdf'

ENDDATA
