ID CAPS generated Problem FOR TACS
SOL 1
CEND

LINE=2175920
DISP (PRINT,PUNCH) = ALL
STRE (PRINT,PUNCH) = ALL
STRA (PRINT,PUNCH) = ALL
SUBCASE 1
	LABEL = Default
	ANALYSIS = STATICS
	SPC = 3

BEGIN BULK
$---1---|---2---|---3---|---4---|---5---|---6---|---7---|---8---|---9---|---10--|
PARAM, POST, -1

SPCADD*               3               1               2 
SPC1*                 1             123          192055 
SPC1*                 1             123          192094 
SPC1*                 1             123          192095 
SPC1*                 1             123          192096 
SPC1*                 1             123          192097 
SPC1*                 1             123          192098 
SPC1*                 1             123          192099 
SPC1*                 1             123          192100 
SPC1*                 1             123          192101 
SPC1*                 1             123          192102 
SPC1*                 1             123          192103 
SPC1*                 1             123          192104 
SPC1*                 1             123          192105 
SPC1*                 1             123          192106 
SPC1*                 1             123          192107 
SPC1*                 1             123          192108 
SPC1*                 1             123          192109 
SPC1*                 1             123          192110 
SPC1*                 1             123          192111 
SPC1*                 1             123          192112 
$ ... 781 like lines cut
SPC*                  2             442               0              0. 
SPC*                  2            1075               0              0. 
SPC*                  2            1076               0              0. 
SPC*                  2            1077               0              0. 
SPC*                  2            1078               0              0. 
SPC*                  2            1079               0              0. 
SPC*                  2            1080               0              0. 
SPC*                  2            1081               0              0. 
SPC*                  2            1082               0              0. 
SPC*                  2            1083               0              0. 
SPC*                  2            1084               0              0. 
SPC*                  2            1085               0              0. 
SPC*                  2            1086               0              0. 
SPC*                  2            1087               0              0. 
SPC*                  2            1088               0              0. 
SPC*                  2            1089               0              0. 
SPC*                  2            1090               0              0. 
SPC*                  2            1091               0              0. 
SPC*                  2            1092               0              0. 
SPC*                  2            1093               0              0. 
$ ... 3274 like lines cut
MAT1*                 1    70000000000.                            0.35 *0      
*0                2700.         2.31E-5                                 *1      
*1           200000000.              0.              0. 
PSHELL*              15               1           4.E-2               1 *0      
*0                  20.               1 0.8333333333333 
PSHELL*              52               1           4.E-2               1 *0      
*0                  20.               1 0.8333333333333 
PSHELL*              34               1           4.E-2               1 *0      
*0                  20.               1 0.8333333333333 
PSHELL*              32               1           4.E-2               1 *0      
*0                  20.               1 0.8333333333333 
PSHELL*              30               1           4.E-2               1 *0      
*0                  20.               1 0.8333333333333 
PSHELL*              28               1           4.E-2               1 *0      
*0                  20.               1 0.8333333333333 
PSHELL*              26               1           4.E-2               1 *0      
*0                  20.               1 0.8333333333333 
PSHELL*              24               1           4.E-2               1 *0      
*0                  20.               1 0.8333333333333 
PSHELL*              22               1           4.E-2               1 *0      
*0                  20.               1 0.8333333333333 
PSHELL*              20               1           4.E-2               1 *0      
*0                  20.               1 0.8333333333333 
PSHELL*              18               1           4.E-2               1 *0      
*0                  20.               1 0.8333333333333 
PSHELL*              16               1           4.E-2               1 *0      
*0                  20.               1 0.8333333333333 
PSHELL*              50               1           4.E-2               1 *0      
*0                  20.               1 0.8333333333333 
PSHELL*              13               1           4.E-2               1 *0      
*0                  20.               1 0.8333333333333 
PSHELL*              10               1           4.E-2               1 *0      
*0                  20.               1 0.8333333333333 
PSHELL*               7               1           4.E-2               1 *0      
*0                  20.               1 0.8333333333333 
PSHELL*               3               1           4.E-2               1 *0      
*0                  20.               1 0.8333333333333 
PSHELL*               1               1           4.E-2               1 *0      
*0                  20.               1 0.8333333333333 
PSHELL*              48               1           4.E-2               1 *0      
*0                  20.               1 0.8333333333333 
PSHELL*              46               1           4.E-2               1 *0      
$ ... 69 like lines cut
DESVAR*               1          LEspar           4.E-2           2.E-2 *0      
*0                8.E-2           4.E-3 
DESVAR*               2            OML1           4.E-2           2.E-2 *0      
*0                8.E-2           4.E-3 
DESVAR*               3           OML10           4.E-2           2.E-2 *0      
*0                8.E-2           4.E-3 
DESVAR*               4           OML11           4.E-2           2.E-2 *0      
*0                8.E-2           4.E-3 
DESVAR*               5           OML12           4.E-2           2.E-2 *0      
*0                8.E-2           4.E-3 
DESVAR*               6           OML13           4.E-2           2.E-2 *0      
*0                8.E-2           4.E-3 
DESVAR*               7           OML14           4.E-2           2.E-2 *0      
*0                8.E-2           4.E-3 
DESVAR*               8           OML15           4.E-2           2.E-2 *0      
*0                8.E-2           4.E-3 
DESVAR*               9           OML16           4.E-2           2.E-2 *0      
*0                8.E-2           4.E-3 
DESVAR*              10           OML17           4.E-2           2.E-2 *0      
*0                8.E-2           4.E-3 
DESVAR*              11           OML18           4.E-2           2.E-2 *0      
*0                8.E-2           4.E-3 
DESVAR*              12           OML19           4.E-2           2.E-2 *0      
*0                8.E-2           4.E-3 
DESVAR*              13            OML2           4.E-2           2.E-2 *0      
*0                8.E-2           4.E-3 
DESVAR*              14           OML20           4.E-2           2.E-2 *0      
*0                8.E-2           4.E-3 
DESVAR*              15           OML21           4.E-2           2.E-2 *0      
*0                8.E-2           4.E-3 
DESVAR*              16           OML22           4.E-2           2.E-2 *0      
*0                8.E-2           4.E-3 
DESVAR*              17           OML23           4.E-2           2.E-2 *0      
*0                8.E-2           4.E-3 
DESVAR*              18           OML24           4.E-2           2.E-2 *0      
*0                8.E-2           4.E-3 
DESVAR*              19            OML3           4.E-2           2.E-2 *0      
*0                8.E-2           4.E-3 
DESVAR*              20            OML4           4.E-2           2.E-2 *0      
*0                8.E-2           4.E-3 
DESVAR*              21            OML5           4.E-2           2.E-2 *0      
$ ... 9 like lines cut
DESVAR*              26          TEspar           4.E-2           2.E-2 *0      
*0                8.E-2           4.E-3 
DESVAR*              27            rib1           4.E-2           2.E-2 *0      
*0                8.E-2           4.E-3 
DESVAR*              28           rib10           4.E-2           2.E-2 *0      
*0                8.E-2           4.E-3 
DESVAR*              29           rib11           4.E-2           2.E-2 *0      
*0                8.E-2           4.E-3 
DESVAR*              30           rib12           4.E-2           2.E-2 *0      
*0                8.E-2           4.E-3 
DESVAR*              31           rib13           4.E-2           2.E-2 *0      
*0                8.E-2           4.E-3 
DESVAR*              32           rib14           4.E-2           2.E-2 *0      
*0                8.E-2           4.E-3 
DESVAR*              33           rib15           4.E-2           2.E-2 *0      
*0                8.E-2           4.E-3 
DESVAR*              34           rib16           4.E-2           2.E-2 *0      
*0                8.E-2           4.E-3 
DESVAR*              35           rib17           4.E-2           2.E-2 *0      
*0                8.E-2           4.E-3 
DESVAR*              36           rib18           4.E-2           2.E-2 *0      
*0                8.E-2           4.E-3 
DESVAR*              37           rib19           4.E-2           2.E-2 *0      
*0                8.E-2           4.E-3 
DESVAR*              38            rib2           4.E-2           2.E-2 *0      
*0                8.E-2           4.E-3 
DESVAR*              39           rib20           4.E-2           2.E-2 *0      
*0                8.E-2           4.E-3 
DESVAR*              40           rib21           4.E-2           2.E-2 *0      
*0                8.E-2           4.E-3 
DESVAR*              41           rib22           4.E-2           2.E-2 *0      
*0                8.E-2           4.E-3 
DESVAR*              42           rib23           4.E-2           2.E-2 *0      
*0                8.E-2           4.E-3 
DESVAR*              43           rib24           4.E-2           2.E-2 *0      
*0                8.E-2           4.E-3 
DESVAR*              44           rib25           4.E-2           2.E-2 *0      
*0                8.E-2           4.E-3 
DESVAR*              45            rib3           4.E-2           2.E-2 *0      
*0                8.E-2           4.E-3 
DESVAR*              46            rib4           4.E-2           2.E-2 *0      
$ ... 11 like lines cut
DESVAR*              52           spar1           4.E-2           2.E-2 *0      
*0                8.E-2           4.E-3 
DESVAR*              53           spar2           4.E-2           2.E-2 *0      
*0                8.E-2           4.E-3 
DESVAR*              54           spar3           4.E-2           2.E-2 *0      
*0                8.E-2           4.E-3 
DVPREL1*            100          PSHELL              15               T *0      
*0                                                   0.                 *1      
*1                    1              1. 
DVPREL1*            200          PSHELL              52               T *0      
*0                                                   0.                 *1      
*1                    2              1. 
DVPREL1*            300          PSHELL              34               T *0      
*0                                                   0.                 *1      
*1                    3              1. 
DVPREL1*            400          PSHELL              32               T *0      
*0                                                   0.                 *1      
*1                    4              1. 
DVPREL1*            500          PSHELL              30               T *0      
*0                                                   0.                 *1      
*1                    5              1. 
DVPREL1*            600          PSHELL              28               T *0      
*0                                                   0.                 *1      
*1                    6              1. 
DVPREL1*            700          PSHELL              26               T *0      
*0                                                   0.                 *1      
*1                    7              1. 
DVPREL1*            800          PSHELL              24               T *0      
*0                                                   0.                 *1      
*1                    8              1. 
DVPREL1*            900          PSHELL              22               T *0      
*0                                                   0.                 *1      
*1                    9              1. 
DVPREL1*           1000          PSHELL              20               T *0      
*0                                                   0.                 *1      
*1                   10              1. 
DVPREL1*           1100          PSHELL              18               T *0      
*0                                                   0.                 *1      
*1                   11              1. 
DVPREL1*           1200          PSHELL              16               T *0      
*0                                                   0.                 *1      
*1                   12              1. 
DVPREL1*           1300          PSHELL              50               T *0      
*0                                                   0.                 *1      
*1                   13              1. 
DVPREL1*           1400          PSHELL              13               T *0      
*0                                                   0.                 *1      
*1                   14              1. 
DVPREL1*           1500          PSHELL              10               T *0      
*0                                                   0.                 *1      
*1                   15              1. 
DVPREL1*           1600          PSHELL               7               T *0      
*0                                                   0.                 *1      
*1                   16              1. 
DVPREL1*           1700          PSHELL               3               T *0      
*0                                                   0.                 *1      
*1                   17              1. 
DVPREL1*           1800          PSHELL               1               T *0      
*0                                                   0.                 *1      
*1                   18              1. 
DVPREL1*           1900          PSHELL              48               T *0      
*0                                                   0.                 *1      
*1                   19              1. 
DVPREL1*           2000          PSHELL              46               T *0      
*0                                                   0.                 *1      
*1                   20              1. 
$ ... 102 like lines cut

INCLUDE 'tacs_CAPS.bdf'

ENDDATA
