ID CAPS generated Problem FOR TACS
SOL 1
CEND

LINE=190930
DISP (PRINT,PUNCH) = ALL
STRE (PRINT,PUNCH) = ALL
STRA (PRINT,PUNCH) = ALL
SUBCASE 1
	LABEL = Default
	ANALYSIS = STATICS
	SPC = 2

BEGIN BULK
$---1---|---2---|---3---|---4---|---5---|---6---|---7---|---8---|---9---|---10--|
PARAM, POST, -1

SPCADD*               2               1 
SPC1*                 1             123            6542 
SPC1*                 1             123            6581 
SPC1*                 1             123            6582 
SPC1*                 1             123            6583 
SPC1*                 1             123            6584 
SPC1*                 1             123            6585 
SPC1*                 1             123            6586 
SPC1*                 1             123            6587 
SPC1*                 1             123            6588 
SPC1*                 1             123            6589 
SPC1*                 1             123            6590 
SPC1*                 1             123            6591 
SPC1*                 1             123            6592 
SPC1*                 1             123            6593 
SPC1*                 1             123            6594 
SPC1*                 1             123            6595 
SPC1*                 1             123            6596 
SPC1*                 1             123            6597 
SPC1*                 1             123            6598 
SPC1*                 1             123            6599 
$ ... 458 like lines cut
MAT1*                 1    70000000000.                            0.35 *0      
*0                2700.         2.31E-5              0.              0. *1      
*1           200000000.              0.              0. 
PSHELL*               1               1             0.2               1 *0      
*0                   1.               1 0.8333333333333 
DESVAR*               1           thick             0.2             0.1 *0      
*0                  0.3           2.E-2 
DVPREL1*            100          PSHELL               1               T *0      
*0                                                   0.                 *1      
*1                    1              1. 

INCLUDE 'nastran_CAPS.bdf'

ENDDATA
