ID CAPS generated Problem FOR TACS
SOL 1
CEND

LINE=10000
DISP (PRINT,PUNCH) = ALL
STRE (PRINT,PUNCH) = ALL
STRA (PRINT,PUNCH) = ALL
SUBCASE 1
	LABEL = Default
	ANALYSIS = STATICS
	SPC = 2

BEGIN BULK
$---1---|---2---|---3---|---4---|---5---|---6---|---7---|---8---|---9---|---10--|
PARAM, POST, -1

SPCADD*               2               1 
SPC1*                 1             123             254 
SPC1*                 1             123             273 
SPC1*                 1             123             274 
SPC1*                 1             123             275 
SPC1*                 1             123             276 
SPC1*                 1             123             277 
SPC1*                 1             123             278 
SPC1*                 1             123             650 
SPC1*                 1             123             651 
SPC1*                 1             123             652 
SPC1*                 1             123             653 
SPC1*                 1             123             654 
SPC1*                 1             123             655 
SPC1*                 1             123             872 
SPC1*                 1             123             882 
SPC1*                 1             123             883 
SPC1*                 1             123             884 
SPC1*                 1             123             885 
SPC1*                 1             123             886 
SPC1*                 1             123             887 
$ ... 108 like lines cut
MAT1*                 1    70000000000.                            0.35 *0      
*0                2700.         2.31E-5                                 *1      
*1           200000000.              0.              0. 
PSHELL*               2               1           3.E-2               1 *0      
*0                  20.               1 0.8333333333333 
PSHELL*               6               1           5.E-2               1 *0      
*0                  20.               1 0.8333333333333 
PSHELL*               3               1           5.E-2               1 *0      
*0                  20.               1 0.8333333333333 
PSHELL*               4               1           5.E-2               1 *0      
*0                  20.               1 0.8333333333333 
PSHELL*               7               1           5.E-2               1 *0      
*0                  20.               1 0.8333333333333 
PSHELL*               8               1           5.E-2               1 *0      
*0                  20.               1 0.8333333333333 
PSHELL*               9               1           5.E-2               1 *0      
*0                  20.               1 0.8333333333333 
PSHELL*              10               1           5.E-2               1 *0      
*0                  20.               1 0.8333333333333 
PSHELL*              11               1           5.E-2               1 *0      
*0                  20.               1 0.8333333333333 
PSHELL*               1               1           5.E-2               1 *0      
*0                  20.               1 0.8333333333333 
PSHELL*               5               1           5.E-2               1 *0      
*0                  20.               1 0.8333333333333 

INCLUDE 'tacs_CAPS.bdf'

ENDDATA
